Version 4.1
SHEET 1 880 680
WIRE 336 112 304 112
WIRE 448 112 416 112
WIRE 448 128 448 112
WIRE 304 160 304 112
WIRE 304 256 304 240
WIRE 256 336 176 336
WIRE 176 368 176 336
WIRE 176 480 176 448
WIRE 304 480 304 352
WIRE 304 480 176 480
WIRE 304 496 304 480
FLAG 448 128 0
FLAG 304 496 0
FLAG 176 336 V_in
FLAG 304 256 V_out
SYMBOL nmos 256 256 R0
WINDOW 123 56 94 Left 2
SYMATTR Value2 W=100u L=1u
SYMATTR InstName M1
SYMATTR Value CMOSN
SYMBOL Res 288 144 R0
SYMATTR InstName RL
SYMATTR Value 10k
SYMBOL Voltage 320 112 R270
WINDOW 0 32 56 VTop 2
WINDOW 3 -32 56 VBottom 2
SYMATTR InstName VDD
SYMATTR Value 3.3
SYMBOL Voltage 176 352 R0
SYMATTR InstName VGS
SYMATTR Value SINE(0.4842473 0.059 10k)
TEXT 176 544 Left 2 !.inc tsmc018.lib
TEXT 176 576 Left 2 ;.dc VGS 0 3.3 1u
TEXT 368 544 Left 2 !.tran 0 1m 0 0.1u
TEXT 384 576 Left 2 ;.op
